*Heading
** Job name: Job-1 Model name: Model-1
** Generated by: Abaqus/CAE 2024.HF6
*Preprint, echo=NO, model=NO, history=NO, contact=NO
**
** PARTS
**
*Part, name=Part-1
*Node
      1,           0.,          0.5
      2,           1.,          0.5
      3,           1.,  0.550000012
      4,           0.,  0.550000012
      5,   1.20000005,          0.5
      6,   1.20000005, -4.21902513e-11
      7,   1.39999998,           0.
      8,   1.39999998,   1.04999995
      9,           1.,   1.04999995
     10,           0.,  0.349999994
     11, 0.0759256631,  0.184920862
     12,           0.,  0.150000006
     13,           0.,           0.
     14, 0.0250000004,          0.5
     15, 0.0500000007,          0.5
     16,  0.075000003,          0.5
     17,  0.100000001,          0.5
     18,        0.125,          0.5
     19,  0.150000006,          0.5
     20,  0.174999997,          0.5
** ... 906 like lines cut
*Element, type=DC2D3
  1,   1,  14, 192
  2, 192,  93,   1
  3,  14,  15, 193
  4, 193, 192,  14
  5,  15,  16, 194
  6, 194, 193,  15
  7,  16,  17, 195
  8, 195, 194,  16
  9,  17,  18, 196
 10, 196, 195,  17
 11,  18,  19, 197
 12, 197, 196,  18
 13,  19,  20, 198
 14, 198, 197,  19
 15,  20,  21, 199
 16, 199, 198,  20
 17,  21,  22, 200
 18, 200, 199,  21
 19,  22,  23, 201
 20, 201, 200,  22
** ... 1694 like lines cut
*Nset, nset=bottom
   6,   7,  13, 107, 108, 109, 169, 170, 171, 172, 173, 174, 175, 176, 177, 178
 179, 180, 181, 182, 183, 184, 185, 186, 187, 188, 189, 190, 191
*Elset, elset=bottom
  179,  180,  182,  485,  574,  596,  927, 1184, 1577, 1607, 1622, 1638, 1643, 1649, 1651, 1652
 1653, 1657, 1658, 1661, 1663, 1667, 1669, 1670, 1684, 1693, 1694, 1706
*Nset, nset=tiles
   1,   2,   3,   4,  14,  15,  16,  17,  18,  19,  20,  21,  22,  23,  24,  25
  26,  27,  28,  29,  30,  31,  32,  33,  34,  35,  36,  37,  38,  39,  40,  41
  42,  43,  44,  45,  46,  47,  48,  49,  50,  51,  52,  53,  54,  55,  56,  57
  58,  59,  60,  61,  62,  63,  64,  65,  66,  67,  68,  69,  70,  71,  72,  73
  74,  75,  76,  77,  78,  79,  80,  81,  82,  83,  84,  85,  86,  87,  88,  89
  90,  91,  92,  93, 192, 193, 194, 195, 196, 197, 198, 199, 200, 201, 202, 203
 204, 205, 206, 207, 208, 209, 210, 211, 212, 213, 214, 215, 216, 217, 218, 219
 220, 221, 222, 223, 224, 225, 226, 227, 228, 229, 230
*Elset, elset=tiles, generate
   1,  160,    1
*Nset, nset=hole
  10,  11,  12, 155, 156, 157, 158, 159, 160, 161, 162, 163, 164, 165
*Elset, elset=hole
 520, 566, 611, 612, 616, 704, 706, 707, 708, 709, 712, 714, 717
*Nset, nset=left
   1,   4,  10,  12,  13,  93, 150, 151, 152, 153, 154, 166, 167, 168
*Elset, elset=left
   2,  82, 520, 523, 524, 564, 613, 619, 630, 703, 721, 827
*Nset, nset=outsurface
   7,   8, 110, 111, 112, 113, 114, 115, 116, 117, 118, 119, 120, 121, 122, 123
 124, 125, 126, 127, 128, 129
*Elset, elset=outsurface
 165, 182, 202, 366, 389, 404, 406, 414, 428, 438, 440, 442, 443, 445, 447, 449
 451, 456, 457, 461, 463
*Nset, nset=floorstructure
   1,   2,   5,   6,  10,  11,  12,  13,  14,  15,  16,  17,  18,  19,  20,  21
  22,  23,  24,  25,  26,  27,  28,  29,  30,  31,  32,  33,  34,  35,  36,  37
  38,  39,  40,  41,  42,  43,  44,  45,  46,  47,  48,  49,  50,  51,  52,  94
  95,  96,  97,  98,  99, 100, 101, 102, 103, 104, 105, 106, 150, 151, 152, 153
 154, 155, 156, 157, 158, 159, 160, 161, 162, 163, 164, 165, 166, 167, 168, 169
 170, 171, 172, 173, 174, 175, 176, 177, 178, 179, 180, 181, 182, 183, 184, 185
 186, 187, 188, 189, 190, 191, 375, 376, 377, 378, 379, 380, 381, 382, 383, 384
 385, 386, 387, 388, 389, 390, 391, 392, 393, 394, 395, 396, 397, 398, 399, 400
 401, 402, 403, 404, 405, 406, 407, 408, 409, 410, 411, 412, 413, 414, 415, 416
 417, 418, 419, 420, 421, 422, 423, 424, 425, 426, 427, 428, 429, 430, 431, 432
 433, 434, 435, 436, 437, 438, 439, 440, 441, 442, 443, 444, 445, 446, 447, 448
 449, 450, 451, 452, 453, 454, 455, 456, 457, 458, 459, 460, 461, 462, 463, 464
 465, 466, 467, 468, 469, 470, 471, 472, 473, 474, 475, 476, 477, 478, 479, 480
 481, 482, 483, 484, 485, 486, 487, 488, 489, 490, 491, 492, 493, 494, 495, 496
 497, 498, 499, 500, 501, 502, 503, 504, 505, 506, 507, 508, 509, 510, 511, 512
 513, 514, 515, 516, 517, 518, 519, 520, 521, 522, 523, 524, 525, 526, 527, 528
 529, 530, 531, 532, 533, 534, 535, 536, 537, 538, 539, 540, 541, 542, 543, 544
 545, 546, 547, 548, 549, 550, 551, 552, 553, 554, 555, 556, 557, 558, 559, 560
 561, 562, 563, 564, 565, 566, 567, 568, 569, 570, 571, 572, 573, 574, 575, 576
 577, 578, 579, 580, 581, 582, 583, 584, 585, 586, 587, 588, 589, 590, 591, 592
** ... 21 like lines cut
*Elset, elset=floorstructure, generate
  511,  1714,     1
*Nset, nset=tilesurface
  3,  4, 54, 55, 56, 57, 58, 59, 60, 61, 62, 63, 64, 65, 66, 67
 68, 69, 70, 71, 72, 73, 74, 75, 76, 77, 78, 79, 80, 81, 82, 83
 84, 85, 86, 87, 88, 89, 90, 91, 92
*Elset, elset=tilesurface, generate
  82,  160,    2
*Nset, nset=wallsurface
   3,   9, 137, 138, 139, 140, 141, 142, 143, 144, 145, 146, 147, 148, 149
*Elset, elset=wallsurface
 169, 209, 216, 228, 230, 232, 234, 235, 238, 240, 242, 243, 248, 268
*Nset, nset=wallstructure
   2,   3,   5,   6,   7,   8,   9,  53,  94,  95,  96,  97,  98,  99, 100, 101
 102, 103, 104, 105, 106, 107, 108, 109, 110, 111, 112, 113, 114, 115, 116, 117
 118, 119, 120, 121, 122, 123, 124, 125, 126, 127, 128, 129, 130, 131, 132, 133
 134, 135, 136, 137, 138, 139, 140, 141, 142, 143, 144, 145, 146, 147, 148, 149
 231, 232, 233, 234, 235, 236, 237, 238, 239, 240, 241, 242, 243, 244, 245, 246
 247, 248, 249, 250, 251, 252, 253, 254, 255, 256, 257, 258, 259, 260, 261, 262
 263, 264, 265, 266, 267, 268, 269, 270, 271, 272, 273, 274, 275, 276, 277, 278
 279, 280, 281, 282, 283, 284, 285, 286, 287, 288, 289, 290, 291, 292, 293, 294
 295, 296, 297, 298, 299, 300, 301, 302, 303, 304, 305, 306, 307, 308, 309, 310
 311, 312, 313, 314, 315, 316, 317, 318, 319, 320, 321, 322, 323, 324, 325, 326
 327, 328, 329, 330, 331, 332, 333, 334, 335, 336, 337, 338, 339, 340, 341, 342
 343, 344, 345, 346, 347, 348, 349, 350, 351, 352, 353, 354, 355, 356, 357, 358
 359, 360, 361, 362, 363, 364, 365, 366, 367, 368, 369, 370, 371, 372, 373, 374
*Elset, elset=wallstructure, generate
 161,  510,    1
** Section: wall
*Solid Section, elset=wallstructure, material=wallstructure
,
*End Part
**  
**
** ASSEMBLY
**
*Assembly, name=Assembly
**  
*Instance, name=Part-1-1, part=Part-1
*End Instance
**  
*Nset, nset=Set-1, instance=Part-1-1
   3,   4,   9,  54,  55,  56,  57,  58,  59,  60,  61,  62,  63,  64,  65,  66
  67,  68,  69,  70,  71,  72,  73,  74,  75,  76,  77,  78,  79,  80,  81,  82
  83,  84,  85,  86,  87,  88,  89,  90,  91,  92, 137, 138, 139, 140, 141, 142
 143, 144, 145, 146, 147, 148, 149
*Elset, elset=Set-1, instance=Part-1-1
  82,  84,  86,  88,  90,  92,  94,  96,  98, 100, 102, 104, 106, 108, 110, 112
 114, 116, 118, 120, 122, 124, 126, 128, 130, 132, 134, 136, 138, 140, 142, 144
 146, 148, 150, 152, 154, 156, 158, 160, 169, 209, 216, 228, 230, 232, 234, 235
 238, 240, 242, 243, 248, 268
*Nset, nset=Set-2, instance=Part-1-1
   7,   8, 110, 111, 112, 113, 114, 115, 116, 117, 118, 119, 120, 121, 122, 123
 124, 125, 126, 127, 128, 129
*Elset, elset=Set-2, instance=Part-1-1
 165, 182, 202, 366, 389, 404, 406, 414, 428, 438, 440, 442, 443, 445, 447, 449
 451, 456, 457, 461, 463
*End Assembly
** 
** MATERIALS
** 
*Material, name=substructure
*Conductivity
2.,
*Material, name=tiles
*Conductivity
1.,
*Material, name=wallstructure
*Conductivity
 0.1,
** ----------------------------------------------------------------
** 
** STEP: Step-1
** 
*Step, name=Step-1, nlgeom=NO
*Heat Transfer, steady state, deltmx=0.
1., 1., 1e-05, 1., 
** 
** BOUNDARY CONDITIONS
** 
** Name: BC-1 Type: Temperature
*Boundary
Set-1, 11, 11, 20.
** Name: BC-2 Type: Temperature
*Boundary
Set-2, 11, 11, -10.
** 
** OUTPUT REQUESTS
** 
*Restart, write, frequency=0
** 
** FIELD OUTPUT: F-Output-1
** 
*Output, field, variable=PRESELECT
*Output, history, frequency=0
*End Step
